examples/casefiles/caseGB.m
function mpc = caseGB
%CASEGB

%% MATPOWER Case Format : Version 2
mpc.version = '2';

%%-----  Power Flow Data  -----%%
%% system MVA base
mpc.baseMVA = 100;

%% bus data
%	bus_i	type	Pd	Qd	Gs	Bs	area	Vm	Va	baseKV	zone	Vmax	Vmin
mpc.bus = [
	1	2	468	102	0	0	1	1	0	275	1	1.1	0.9;
	2	2	513	113	0	0	1	1	0	275	1	1.1	0.9;
	3	2	555	105	0	0	1	1	0	132	1	1.1	0.9;
	4	2	1308	317	0	0	1	1	0	275	1	1.1	0.9;
	5	2	502	128	0	0	1	1	0	400	1	1.1	0.9;
	6	2	1176	315	0	0	1	1	0	400	1	1.1	0.9;
	7	2	745	171	0	0	1	1	0	400	1	1.1	0.9;
	8	1	117.5	37.4	0	0	1	1	0	400	1	1.1	0.9;
	9	1	130	53	0	0	1	1	0	400	1	1.1	0.9;
	10	2	2561	465	0	0	1	1	0	400	1	1.1	0.9;
	11	2	3360	760	0	0	1	1	0	400	1	1.1	0.9;
	12	2	1189	338	0	0	1	1	0	400	1	1.1	0.9;
	13	1	2524	766	0	0	1	1	0	400	1	1.1	0.9;
	14	1	1831	566.5	0	0	1	1	0	400	1	1.1	0.9;
	15	2	2633	694.6	0	0	1	1	0	400	1	1.1	0.9;
	16	2	1607	655	0	0	1	1	0	400	1	1.1	0.9;
	17	2	1081	371	0	0	1	1	0	400	1	1.1	0.9;
	18	2	5362	1935	0	0	1	1	0	400	1	1.1	0.9;
	19	2	2019	648	0	0	1	1	0	400	1	1.1	0.9;
	20	2	1027.36	305.8	0	0	1	1	0	400	1	1.1	0.9;
	21	2	702	202.2	0	0	1	1	0	400	1	1.1	0.9;
	22	2	1820	665	0	0	1	1	0	400	1	1.1	0.9;
	23	2	4734	1337	0	0	1	1	0	400	1	1.1	0.9;
	24	1	1418	528	0	0	1	1	0	400	1	1.1	0.9;
	25	2	9734	2902	0	0	1	1	0	400	1	1.1	0.9;
	26	2	1424	434	0	0	1	1	0	400	1	1.1	0.9;
	27	3	457	138	0	0	1	1	0	400	1	1.1	0.9;
	28	2	2751	841	0	0	1	1	0	400	1	1.1	0.9;
	29	2	2577	356	0	0	1	1	0	400	1	1.1	0.9;
];

%% generator data
%	bus	Pg	Qg	Qmax	Qmin	Vg	mBase	status	Pmax	Pmin	Pc1	Pc2	Qc1min	Qc1max	Qc2min	Qc2max	ramp_agc	ramp_10	ramp_30	ramp_q	apf
mpc.gen = [
	1	1061.8	34.25	432.25	-363.75	1	100	1	1541	0	0	0	0	0	0	0	0	0	0	0	0;
	2	1572.43	315.91	1122.84	-491.03	1	100	1	1586.6	0	0	0	0	0	0	0	0	0	0	0	0;
	3	969.56	20.51	276.13	-235.11	1	100	1	1138.23	0	0	0	0	0	0	0	0	0	0	0	0;
	4	2908.2	-6.21	939.74	-952.15	1	100	1	3018	0	0	0	0	0	0	0	0	0	0	0	0;
	5	1097.2	-3.93	431.86	-439.71	1	100	1	1097.2	0	0	0	0	0	0	0	0	0	0	0	0;
	6	1083.92	-25.62	476.55	-527.79	1	100	1	1473.32	0	0	0	0	0	0	0	0	0	0	0	0;
	7	2546.8	111.05	1027.44	-805.33	1	100	1	2631.25	0	0	0	0	0	0	0	0	0	0	0	0;
	10	3503	-41.52	1424.31	-1507.35	1	100	1	3502	0	0	0	0	0	0	0	0	0	0	0	0;
	11	5691.32	273.3	2796.26	-2249.66	1	100	1	5767	0	0	0	0	0	0	0	0	0	0	0	0;
	12	4171	29.63	2000.93	-1941.67	1	100	1	5079	0	0	0	0	0	0	0	0	0	0	0	0;
	15	7800	503.58	3535.03	-2527.87	1	100	1	7832	0	0	0	0	0	0	0	0	0	0	0	0;
	16	12231	400.29	6007.62	-5207.05	1	100	1	12245	0	0	0	0	0	0	0	0	0	0	0	0;
	17	2000	204.15	814.23	-405.94	1	100	1	2021	0	0	0	0	0	0	0	0	0	0	0	0;
	18	2188	158.62	924.99	-607.75	1	100	1	2210	0	0	0	0	0	0	0	0	0	0	0	0;
	19	3251.8	-66.18	1499.33	-1631.68	1	100	1	3251.8	0	0	0	0	0	0	0	0	0	0	0	0;
	20	1560	285.52	857.78	-286.74	1	100	1	1560	0	0	0	0	0	0	0	0	0	0	0	0;
	21	665	10.04	326.15	-306.07	1	100	1	665	0	0	0	0	0	0	0	0	0	0	0	0;
	22	401.1	-21.48	189.72	-232.68	1	100	1	401	0	0	0	0	0	0	0	0	0	0	0	0;
	23	7686.01	88.56	3193.05	-3015.93	1	100	1	9165.4	0	0	0	0	0	0	0	0	0	0	0	0;
	25	2123	0.98	949.38	-947.42	1	100	1	3368	0	0	0	0	0	0	0	0	0	0	0	0;
	26	5509	339.73	2520.08	-1840.61	1	100	1	7617	0	0	0	0	0	0	0	0	0	0	0	0;
	27	1298	97.62	737.03	-541.79	1	100	1	1381	0	0	0	0	0	0	0	0	0	0	0	0;
	28	1528	33.85	718.61	-650.91	1	100	1	1528	0	0	0	0	0	0	0	0	0	0	0	0;
	29	2166	-16.9	858.67	-892.46	1	100	1	2306	0	0	0	0	0	0	0	0	0	0	0	0;
];

%% branch data
%	fbus	tbus	r	x	b	rateA	rateB	rateC	ratio	angle	status	angmin	angmax
mpc.branch = [
	1	2	0.0122	0.02	0.0856	525	525	525	0	0	1	-360	360;
	1	3	0.007	0.15	0.052	132	132	132	1	2	1	-360	360;
	1	2	0.0122	0.02	0.2844	525	525	525	0	0	1	-360	360;
	1	3	0.007	0.15	0.052	132	132	132	1	2	1	-360	360;
	2	4	0.0004	0.065	0.4454	760	760	760	0	0	1	-360	360;
	2	4	0.0004	0.065	0.5545	760	760	760	0	0	1	-360	360;
	4	7	0.00211	0.0135	0.1174	1090	1090	1090	0	0	1	-360	360;
	4	6	0.0013	0.023	0.1496	1500	1500	1500	0	0	1	-360	360;
	4	6	0.0013	0.023	0.1758	1120	1120	1120	0	0	1	-360	360;
	4	5	0.001	0.024	0.125	1000	1000	1000	0	0	1	-360	360;
	4	5	0.001	0.024	0.125	1000	1000	1000	0	0	1	-360	360;
	4	7	0.0021	0.0135	0.1538	1090	1090	1090	0	0	1	-360	360;
	5	6	0.00085	0.01051	0.38254	1390	1390	1390	0	0	1	-360	360;
	5	6	0.00151	0.01613	0.59296	1390	1390	1390	0	0	1	-360	360;
	6	9	0.00078	0.00852	0.0737	2100	2100	2100	0	0	1	-360	360;
	6	9	0.00078	0.00852	0.4635	2100	2100	2100	0	0	1	-360	360;
	7	8	0.0004	0.0001	0.728	2180	2180	2180	0	0	1	-360	360;
	7	8	0.0004	0.0001	1.2872	2500	2500	2500	0	0	1	-360	360;
	7	6	0.003	0.2	0.2939	950	950	950	0	0	1	-360	360;
	7	6	0.003	0.2	0.2939	950	950	950	0	0	1	-360	360;
	8	10	0.00083	0.0175	0.6624	3070	3070	3070	0	0	1	-360	360;
	8	10	0.00083	0.0175	0.6624	3070	3070	3070	0	0	1	-360	360;
	9	11	0.00164	0.0163	0.4868	1390	1390	1390	0	0	1	-360	360;
	9	11	0.00164	0.0163	0.4868	1390	1390	1390	0	0	1	-360	360;
	9	10	0.00352	0.02453	0.1898	855	855	855	0	0	1	-360	360;
	9	10	0.00492	0.0343	0.2502	775	775	775	0	0	1	-360	360;
	10	15	0.00053	0.00835	5.373	4840	4840	4840	0	0	1	-360	360;
	10	15	0.00052	0.0063	1.0636	4020	4020	4020	0	0	1	-360	360;
	11	15	0.0007	0.042	0.3907	2520	2520	2520	0	0	1	-360	360;
	11	15	0.00099	0.042	0.5738	2520	2520	2520	0	0	1	-360	360;
	11	13	0.0004	0.0052	0.2498	2170	2170	2170	0	0	1	-360	360;
	11	13	0.0004	0.0052	0.2664	2210	2210	2210	0	0	1	-360	360;
	11	12	0.0001	0.0085	0.0798	3320	3320	3320	0	0	1	-360	360;
	11	12	0.0001	0.0085	0.0798	3320	3320	3320	0	0	1	-360	360;
	12	13	0.00096	0.01078	0.385	3100	3100	3100	0	0	1	-360	360;
	12	18	0.00074	0.009	0.2911	2400	2400	2400	1	2	1	-360	360;
	12	18	0.00097	0.009	0.3835	2400	2400	2400	0	0	1	-360	360;
	12	13	0.00096	0.01078	0.385	3100	3100	3100	1	2	1	-360	360;
	13	18	0.00049	0.007	0.1943	2400	2400	2400	0	0	1	-360	360;
	13	18	0.00084	0.007	0.7759	2400	2400	2400	0	0	1	-360	360;
	13	15	0.00137	0.023	0.6643	1240	1240	1240	0	0	1	-360	360;
	13	15	0.00164	0.023	0.1104	955	955	955	0	0	1	-360	360;
	13	14	0.00107	0.01163	1.1745	1040	1040	1040	0	0	1	-360	360;
	13	14	0.00082	0.01201	1.2125	1040	1040	1040	0	0	1	-360	360;
	14	16	0.0005	0.016	0.2795	2580	2580	2580	0	0	1	-360	360;
	14	16	0.005	0.018	0.1466	625	625	625	0	0	1	-360	360;
	15	16	0.00033	0.0052	0.3534	2770	2770	2770	0	0	1	-360	360;
	15	16	0.00016	0.00172	0.3992	5540	5540	5540	0	0	1	-360	360;
	15	14	0.00019	0.00222	0.7592	5000	5000	5000	0	0	1	-360	360;
	15	14	0.00018	0.00222	0.5573	5000	5000	5000	0	0	1	-360	360;
	16	19	0.00056	0.0141	0.4496	2780	2780	2780	0	0	1	-360	360;
	16	19	0.00056	0.0141	0.4496	3820	3820	3820	0	0	1	-360	360;
	17	16	0.001	0.01072	0.2651	2150	2150	2150	0	0	1	-360	360;
	17	16	0.001	0.01072	0.4573	1890	1890	1890	0	0	1	-360	360;
	17	22	0.00068	0.0097	0.4566	2100	2100	2100	0	0	1	-360	360;
	17	22	0.00069	0.0097	0.4574	2100	2100	2100	0	0	1	-360	360;
	18	17	0.00042	0.0018	0.2349	3100	3100	3100	0	0	1	-360	360;
	18	17	0.00042	0.0018	0.2349	3460	3460	3460	0	0	1	-360	360;
	18	23	0.00138	0.0096	0.4829	1970	1970	1970	0	0	1	-360	360;
	18	23	0.00117	0.0096	0.4122	1970	1970	1970	0	0	1	-360	360;
	20	26	0.00035	0.0023	0.2249	2780	2780	2780	0	0	1	-360	360;
	20	26	0.00035	0.0023	0.2249	2780	2780	2780	0	0	1	-360	360;
	20	19	0.00178	0.0213	0.6682	1590	1590	1590	0	0	1	-360	360;
	20	19	0.00132	0.0143	0.3656	1590	1590	1590	0	0	1	-360	360;
	21	16	0.00145	0.01824	0.9169	2780	2780	2780	0	0	1	-360	360;
	21	16	0.00145	0.01824	0.9169	2780	2780	2780	0	0	1	-360	360;
	21	25	0.00025	0.01	0.1586	2780	2780	2780	0	0	1	-360	360;
	21	25	0.00025	0.01	0.1586	2780	2780	2780	0	0	1	-360	360;
	21	20	0.0012	0.0048	0.4446	2780	2780	2780	0	0	1	-360	360;
	21	20	0.0012	0.0048	0.7	2780	2780	2780	0	0	1	-360	360;
	21	19	0.00037	0.0059	0.294	3030	3030	3030	0	0	1	-360	360;
	21	19	0.00037	0.0059	0.2955	2780	2780	2780	0	0	1	-360	360;
	22	16	0.00178	0.0172	0.8403	2010	2010	2010	0	0	1	-360	360;
	22	16	0.00178	0.0172	0.627	2010	2010	2010	0	0	1	-360	360;
	22	25	0.00037	0.0041	0.4098	3275	3275	3275	0	0	1	-360	360;
	22	25	0.00034	0.0041	0.429	3275	3275	3275	0	0	1	-360	360;
	22	21	0.00019	0.00111	0.1232	2780	2780	2780	0	0	1	-360	360;
	22	21	0.00048	0.0061	0.3041	2780	2780	2780	0	0	1	-360	360;
	23	29	0.00151	0.0182	0.53	2010	2010	2010	0	0	1	-360	360;
	23	24	0.00086	0.0008	0.9622	2780	2780	2780	0	0	1	-360	360;
	23	24	0.00023	0.0007	2.8447	4400	4400	4400	0	0	1	-360	360;
	23	22	0.00055	0.003	0.3468	2780	2780	2780	0	0	1	-360	360;
	23	22	0.00039	0.003	0.2466	2770	2770	2770	0	0	1	-360	360;
	23	29	0.00151	0.0182	0.53	2010	2010	2010	0	0	1	-360	360;
	24	28	0.00068	0.007	0.2388	2210	2210	2210	0	0	1	-360	360;
	24	25	0.00104	0.0091	0.2918	1390	1390	1390	0	0	1	-360	360;
	24	25	0.00104	0.0091	0.2918	1390	1390	1390	0	0	1	-360	360;
	24	28	0.00068	0.007	0.2388	2210	2210	2210	0	0	1	-360	360;
	25	26	0.0002	0.0057	0.532	6960	6960	6960	0	0	1	-360	360;
	25	26	0.0002	0.0057	0.532	5540	5540	5540	0	0	1	-360	360;
	27	26	0.0002	0.00503	0.1797	3100	3100	3100	0	0	1	-360	360;
	27	26	0.0002	0.00503	0.1797	3100	3100	3100	0	0	1	-360	360;
	28	27	0.00038	0.00711	0.2998	3070	3070	3070	0	0	1	-360	360;
	28	27	0.00038	0.00711	0.2998	3070	3070	3070	0	0	1	-360	360;
	29	28	0.00051	0.00796	0.34	2780	2780	2780	0	0	1	-360	360;
	29	28	0.00051	0.00796	0.34	2780	2780	2780	0	0	1	-360	360;
	3	4	0.003	0.041	0.0044	648	648	648	0	0	1	-360	360;
	3	4	0.003	0.041	0.044	648	648	648	0	0	1	-360	360;
	3	2	0.03004	0.077	0.0124	652	652	652	0	0	1	-360	360;
];

%%-----  OPF Data  -----%%
%% area data
%	area	refbus
mpc.areas = [
	1	1;
];

%% generator cost data
%	1	startup	shutdown	n	x1	y1	...	xn	yn
%	2	startup	shutdown	n	c(n-1)	...	c0
mpc.gencost = [
	2	1500	0	3	0.04	61	481.77;
	2	1500	0	3	0.03	260.01	801.37;
	2	1500	0	3	0.04	4.45	395.4;
	2	1500	0	3	0.04	198.95	869.31;
	2	1500	0	3	0.02	248	487.06;
	2	1500	0	3	0.03	4.44	395.39;
	2	1500	0	3	0.03	134.39	487.07;
	2	1500	0	3	0.03	267.38	1127.04;
	2	1500	0	3	0.05	390.39	1269.99;
	2	1500	0	3	0.04	326.86	1269.89;
	2	1500	0	3	0.01	12.38	382.24;
	2	1500	0	3	0.03	272.38	1183.6;
	2	1500	0	3	0.01	12.38	382.24;
	2	1500	0	3	0.02	142.38	782.92;
	2	1500	0	3	0.02	130.01	400.69;
	2	1500	0	3	0.02	10.31	392.16;
	2	1500	0	3	0.01	130	400.68;
	2	1500	0	3	0.01	130	400.68;
	2	1500	0	3	0.05	302.06	2455.05;
	2	1500	0	3	0.02	141.84	1065.79;
	2	1500	0	3	0.04	170.6	1848.71;
	2	1500	0	3	0.02	118.01	86.39;
	2	1500	0	3	0.02	260	801.36;
	2	1500	0	3	0.03	378	1137.06;
];
